Circuit: * C:\users\user\Meine Dokumente\Dokumente\github_projects\atmelmca\peakhold.asc

Direct Newton iteration for .op point succeeded.
.step x=0.1
.step x=0.2
.step x=0.3
.step x=0.4
.step x=0.5
.step x=0.6
.step x=0.7
.step x=0.8
.step x=0.9
.step x=1
.step x=1.1
.step x=1.2
.step x=1.3
.step x=1.4
.step x=1.5
.step x=1.6
.step x=1.7
.step x=1.8
.step x=1.9
.step x=2

Date: Sat Aug 15 12:34:36 2015
Total elapsed time: 5.777 seconds.

tnom = 27
temp = 27
method = modified trap
totiter = 4053
traniter = 4027
tranpoints = 1486
accept = 1356
rejected = 130
matrix size = 70
fillins = 135
solver = Normal
Matrix Compiler1: 11,1 KB object code size  4.6/3.1/[1.2]
Matrix Compiler2: off  [1.7]/2.3/4.7


